MATDSS_ver0.96/DSS_Files/8500-Node/IEEE8500_Power_seq_kVA.txt

SYMMETRICAL COMPONENT POWERS BY CIRCUIT ELEMENT (first 3 phases)                                     Excess Power

Element                     Term    P1(kW)   Q1(kvar)       P2         Q2      P0      Q0       P_Norm      Q_Norm     P_Emerg    Q_Emerg

"Vsource.SOURCE"             1   -11983.5    -1385.0        0.0        0.0     0.0     0.0
"Vsource.SOURCE"             2        0.0        0.0        0.0        0.0     0.0     0.0
"Line.HVMV_SUB_CONNECTOR"    1    11917.6      489.4        0.6       -1.7     0.5    -0.2     3262.5      133.4        0.0        0.0
"Line.HVMV_SUB_CONNECTOR"    2   -11917.6     -489.4       -0.6        1.7    -0.5     0.2
"Line.LN5502549-1"           1        0.0        0.0        0.0        0.0     0.0     0.0        0.0        0.0        0.0        0.0
"Line.LN5502549-1"           2        0.0        0.0        0.0        0.0     0.0     0.0
"Line.LN6259988-1"           1        0.0        0.0        0.0        0.0     0.0     0.0        0.0        0.0        0.0        0.0
"Line.LN6259988-1"           2        0.0        0.0        0.0        0.0     0.0     0.0
"Line.LN6077796-1"           1        0.0        0.0        0.0        0.0     0.0     0.0        0.0        0.0        0.0        0.0
"Line.LN6077796-1"           2        0.0        0.0        0.0        0.0     0.0     0.0
"Line.LN5835135-2"           1        0.0        0.0        0.0        0.0     0.0     0.0        0.0        0.0        0.0        0.0
"Line.LN5835135-2"           2        0.0        0.0        0.0        0.0     0.0     0.0
"Line.LN5896826-1"           1        0.0        0.0        0.0        0.0     0.0     0.0        0.0        0.0        0.0        0.0
"Line.LN5896826-1"           2        0.0        0.0        0.0        0.0     0.0     0.0
"Line.LN5714038-1"           1        0.0        0.0        0.0        0.0     0.0     0.0        0.0        0.0        0.0        0.0
"Line.LN5714038-1"           2        0.0        0.0        0.0        0.0     0.0     0.0
"Line.LN5653457-1"           1      549.3      156.6       -1.9       -4.9     5.3    -5.0        0.0        0.0        0.0        0.0
"Line.LN5653457-1"           2     -549.0     -156.6        1.9        4.9    -5.2     5.0
"Line.LN5835173-1"           1      986.6      269.6       -4.8       -3.1     7.5    -0.7        0.0        0.0        0.0        0.0
"Line.LN5835173-1"           2     -986.4     -269.5        4.8        3.1    -7.5     0.7
"Line.LN6321415-1"           1        0.0        0.0        0.0        0.0     0.0     0.0        0.0        0.0        0.0        0.0
"Line.LN6321415-1"           2        0.0        0.0        0.0        0.0     0.0     0.0
"Line.LN5565092-1"           1        0.0        0.0        0.0        0.0     0.0     0.0        0.0        0.0        0.0        0.0
"Line.LN5565092-1"           2        0.0        0.0        0.0        0.0     0.0     0.0
"Line.LN6073648-1"           1        0.0        0.0        0.0        0.0     0.0     0.0        0.0        0.0        0.0        0.0
"Line.LN6073648-1"           2        0.0        0.0        0.0        0.0     0.0     0.0
"Line.LN5774457-1"           1      544.2      145.5        1.9       -0.3    -1.0    -0.9        0.0        0.0        0.0        0.0
"Line.LN5774457-1"           2     -544.1     -145.5       -1.9        0.3     1.0     0.9
"Line.LN5534966-3"           1        0.0        0.0        0.0        0.0     0.0     0.0        0.0        0.0        0.0        0.0
"Line.LN5534966-3"           2        0.0        0.0        0.0        0.0     0.0     0.0
"Line.LN5859996-1"           1        0.0        0.0        0.0        0.0     0.0     0.0        0.0        0.0        0.0        0.0
"Line.LN5859996-1"           2        0.0        0.0        0.0        0.0     0.0     0.0
"Line.LN6138610-2"           1     2244.5      603.5        6.8        2.8    -3.7     0.6        0.0        0.0        0.0        0.0
"Line.LN6138610-2"           2    -2243.1     -603.1       -6.8       -2.8     3.7    -0.6
"Line.LN6258435-3"           1        0.0        0.0        0.0        0.0     0.0     0.0        0.0        0.0        0.0        0.0
"Line.LN6258435-3"           2        0.0        0.0        0.0        0.0     0.0     0.0
"Line.LN5804790-1"           1        0.0        0.0        0.0        0.0     0.0     0.0        0.0        0.0        0.0        0.0
"Line.LN5804790-1"           2        0.0        0.0        0.0        0.0     0.0     0.0
"Line.LN6900591-14"          1        0.0        0.0        0.0        0.0     0.0     0.0        0.0        0.0        0.0        0.0
"Line.LN6900591-14"          2        0.0        0.0        0.0        0.0     0.0     0.0
"Line.LN6409873-1"           1        0.0        0.0        0.0        0.0     0.0     0.0        0.0        0.0        0.0        0.0
"Line.LN6409873-1"           2        0.0        0.0        0.0        0.0     0.0     0.0
"Line.LN6014135-1"           1        0.0        0.0        0.0        0.0     0.0     0.0        0.0        0.0        0.0        0.0
"Line.LN6014135-1"           2        0.0        0.0        0.0        0.0     0.0     0.0
"Line.LN6077784-1"           1     1203.7      333.6        1.2       -5.1     3.4    -5.9        0.0        0.0        0.0        0.0
"Line.LN6077784-1"           2    -1203.5     -333.3       -1.2        5.1    -3.3     5.9
"Line.LN5744338-1"           1        0.0        0.0        0.0        0.0     0.0     0.0        0.0        0.0        0.0        0.0
"Line.LN5744338-1"           2        0.0        0.0        0.0        0.0     0.0     0.0
"Line.LN6991381-4"           1        0.0        0.0        0.0        0.0     0.0     0.0        0.0        0.0        0.0        0.0
"Line.LN6991381-4"           2        0.0        0.0        0.0        0.0     0.0     0.0
"Line.LN5774480-1"           1        0.0        0.0        0.0        0.0     0.0     0.0        0.0        0.0        0.0        0.0
"Line.LN5774480-1"           2        0.0        0.0        0.0        0.0     0.0     0.0
"Line.LN5986938-3"           1        0.0        0.0        0.0        0.0     0.0     0.0        0.0        0.0        0.0        0.0
"Line.LN5986938-3"           2        0.0        0.0        0.0        0.0     0.0     0.0
"Line.LN5894230-1"           1        0.0        0.0        0.0        0.0     0.0     0.0        0.0        0.0        0.0        0.0
"Line.LN5894230-1"           2        0.0        0.0        0.0        0.0     0.0     0.0
"Line.LN5683858-3"           1       68.2       18.5       -0.1       -0.2     0.5    -0.1        0.0        0.0        0.0        0.0
"Line.LN5683858-3"           2      -68.2      -18.5        0.1        0.2    -0.5     0.1
"Line.LN5920279-5"           1     6334.0      819.6       -9.8      -17.4   -14.6   -27.4        0.0        0.0        0.0        0.0
"Line.LN5920279-5"           2    -6333.1     -817.4        9.8       17.4    14.7    27.5
"Line.LN6439600-1"           1        0.0        0.0        0.0        0.0     0.0     0.0        0.0        0.0        0.0        0.0
"Line.LN6439600-1"           2        0.0        0.0        0.0        0.0     0.0     0.0
"Line.LN5589097-1"           1        0.0        0.0        0.0        0.0     0.0     0.0        0.0        0.0        0.0        0.0
"Line.LN5589097-1"           2        0.0        0.0        0.0        0.0     0.0     0.0
"Line.LN5651975-1"           1      781.9      204.2        8.4        3.7    -9.3    -0.5        0.0        0.0        0.0        0.0
"Line.LN5651975-1"           2     -781.7     -204.2       -8.4       -3.7     9.3     0.5
"Line.LN5865236-1"           1        0.0        0.0        0.0        0.0     0.0     0.0        0.0        0.0        0.0        0.0
"Line.LN5865236-1"           2        0.0        0.0        0.0        0.0     0.0     0.0
"Line.LN5593232-1"           1        0.0        0.0        0.0        0.0     0.0     0.0        0.0        0.0        0.0        0.0
"Line.LN5593232-1"           2        0.0        0.0        0.0        0.0     0.0     0.0
"Line.LN5740283-1"           1        0.0        0.0        0.0        0.0     0.0     0.0        0.0        0.0        0.0        0.0
"Line.LN5740283-1"           2        0.0        0.0        0.0        0.0     0.0     0.0
"Line.LN6106559-1"           1        0.0        0.0        0.0        0.0     0.0     0.0        0.0        0.0        0.0        0.0
"Line.LN6106559-1"           2        0.0        0.0        0.0        0.0     0.0     0.0
"Line.LN5714056-3"           1      625.4      164.1        6.4        2.5    -9.1    -1.8        0.0        0.0        0.0        0.0
"Line.LN5714056-3"           2     -624.9     -164.0       -6.3       -2.5     9.2     1.8
"Line.LN5985355-3"           1        0.0        0.0        0.0        0.0     0.0     0.0        0.0        0.0        0.0        0.0
"Line.LN5985355-3"           2        0.0        0.0        0.0        0.0     0.0     0.0
"Line.LN5531956-1"           1        0.0        0.0        0.0        0.0     0.0     0.0        0.0        0.0        0.0        0.0
"Line.LN5531956-1"           2        0.0        0.0        0.0        0.0     0.0     0.0
"Line.LN5650048-1"           1        0.0        0.0        0.0        0.0     0.0     0.0        0.0        0.0        0.0        0.0
"Line.LN5650048-1"           2        0.0        0.0        0.0        0.0     0.0     0.0
"Line.LN6290203-1"           1      814.8      222.9       -4.6       -3.2     6.7    -1.3        0.0        0.0        0.0        0.0
"Line.LN6290203-1"           2     -814.6     -222.8        4.6        3.2    -6.6     1.4
"Line.LN6134414-1"           1        0.0        0.0        0.0        0.0     0.0     0.0        0.0        0.0        0.0        0.0
"Line.LN6134414-1"           2        0.0        0.0        0.0        0.0     0.0     0.0
"Line.LN6259998-2"           1        0.0        0.0        0.0        0.0     0.0     0.0        0.0        0.0        0.0        0.0
"Line.LN6259998-2"           2        0.0        0.0        0.0        0.0     0.0     0.0
"Line.LN6078767-1"           1     2816.7     -162.5        1.5        2.9     4.9     1.6        0.0        0.0        0.0        0.0
"Line.LN6078767-1"           2    -2816.5      163.0       -1.5       -2.9    -4.9    -1.6
"Line.LN6017300-1"           1        0.0        0.0        0.0        0.0     0.0     0.0        0.0        0.0        0.0        0.0
"Line.LN6017300-1"           2        0.0        0.0        0.0        0.0     0.0     0.0
"Line.LN8979257-2"           1       29.2        7.6       -0.0        0.0     0.0    -0.0        0.0        0.0        0.0        0.0
"Line.LN8979257-2"           2      -29.2       -7.7        0.0       -0.0    -0.0     0.0
"Line.LN81048109-1"          1        0.0        0.0        0.0        0.0     0.0     0.0        0.0        0.0        0.0        0.0
"Line.LN81048109-1"          2        0.0        0.0        0.0        0.0     0.0     0.0
"Line.293471"                1       29.2        7.8       -0.0        0.0     0.0    -0.0        0.0        0.0        0.0        0.0
"Line.293471"                2      -29.2       -7.8        0.0       -0.0    -0.0     0.0
"Line.LN5534965-2"           1        0.0        0.0        0.0        0.0     0.0     0.0        0.0        0.0        0.0        0.0
"Line.LN5534965-2"           2        0.0        0.0        0.0        0.0     0.0     0.0
"Line.LN5655683-1"           1        0.0        0.0        0.0        0.0     0.0     0.0        0.0        0.0        0.0        0.0
"Line.LN5655683-1"           2        0.0        0.0        0.0        0.0     0.0     0.0
"Line.LN5686247-1"           1        0.0        0.0        0.0        0.0     0.0     0.0        0.0        0.0        0.0        0.0
"Line.LN5686247-1"           2        0.0        0.0        0.0        0.0     0.0     0.0
"Line.LN6048642-1"           1        0.0        0.0        0.0        0.0     0.0     0.0        0.0        0.0        0.0        0.0
"Line.LN6048642-1"           2        0.0        0.0        0.0        0.0     0.0     0.0
"Line.LN5928544-3"           1        0.0        0.0        0.0        0.0     0.0     0.0        0.0        0.0        0.0        0.0
"Line.LN5928544-3"           2        0.0        0.0        0.0        0.0     0.0     0.0
"Line.LN6108172-1"           1        0.0        0.0        0.0        0.0     0.0     0.0        0.0        0.0        0.0        0.0
"Line.LN6108172-1"           2        0.0        0.0        0.0        0.0     0.0     0.0
"Line.LN5532754-1"           1      706.1      186.0        7.5        2.5    -8.8    -1.7        0.0        0.0        0.0        0.0
"Line.LN5532754-1"           2     -706.0     -186.0       -7.5       -2.5     8.8     1.7
"Line.LN5591834-1"           1        0.0        0.0        0.0        0.0     0.0     0.0        0.0        0.0        0.0        0.0
"Line.LN5591834-1"           2        0.0        0.0        0.0        0.0     0.0     0.0
"Line.LN6347196-2"           1      451.6      114.7        2.1        2.5    -3.7     1.7        0.0        0.0        0.0        0.0
"Line.LN6347196-2"           2     -451.5     -114.7       -2.1       -2.5     3.7    -1.7
"Line.LN5532741-1"           1        0.0        0.0        0.0        0.0     0.0     0.0        0.0        0.0        0.0        0.0
"Line.LN5532741-1"           2        0.0        0.0        0.0        0.0     0.0     0.0
"Line.LN5804803-1"           1        0.0        0.0        0.0        0.0     0.0     0.0        0.0        0.0        0.0        0.0
"Line.LN5804803-1"           2        0.0        0.0        0.0        0.0     0.0     0.0
"Line.LN6169248-1"           1     1646.8      462.6       12.4       -5.7    -8.3   -10.8        0.0        0.0        0.0        0.0
"Line.LN6169248-1"           2    -1646.0     -461.9      -12.3        5.8     8.4    10.9
"Line.LN5532786-2"           1        0.0        0.0        0.0        0.0     0.0     0.0        0.0        0.0        0.0        0.0
"Line.LN5532786-2"           2        0.0        0.0        0.0        0.0     0.0     0.0
"Line.LN5744339-1"           1        0.0        0.0        0.0        0.0     0.0     0.0        0.0        0.0        0.0        0.0
"Line.LN5744339-1"           2        0.0        0.0        0.0        0.0     0.0     0.0
"Line.LN5531255-3"           1        0.0        0.0        0.0        0.0     0.0     0.0        0.0        0.0        0.0        0.0
"Line.LN5531255-3"           2        0.0        0.0        0.0        0.0     0.0     0.0
"Line.LN5926308-2"           1      765.8      207.4       -0.8       -1.6    -1.5    -2.1        0.0        0.0        0.0        0.0
"Line.LN5926308-2"           2     -765.6     -207.3        0.8        1.6     1.5     2.1
"Line.LN5683856-3"           1        0.0        0.0        0.0        0.0     0.0     0.0        0.0        0.0        0.0        0.0
"Line.LN5683856-3"           2        0.0        0.0        0.0        0.0     0.0     0.0
"Line.LN6171502-1"           1        0.0        0.0        0.0        0.0     0.0     0.0        0.0        0.0        0.0        0.0
"Line.LN6171502-1"           2        0.0        0.0        0.0        0.0     0.0     0.0
"Line.LN5593228-1"           1        0.0        0.0        0.0        0.0     0.0     0.0        0.0        0.0        0.0        0.0
"Line.LN5593228-1"           2        0.0        0.0        0.0        0.0     0.0     0.0
"Line.LN6380800-1"           1        0.0        0.0        0.0        0.0     0.0     0.0        0.0        0.0        0.0        0.0
"Line.LN6380800-1"           2        0.0        0.0        0.0        0.0     0.0     0.0
"Line.LN6199525-2"           1        0.0        0.0        0.0        0.0     0.0     0.0        0.0        0.0        0.0        0.0
"Line.LN6199525-2"           2        0.0        0.0        0.0        0.0     0.0     0.0
"Line.LN5772710-2"           1        0.0        0.0        0.0        0.0     0.0     0.0        0.0        0.0        0.0        0.0
"Line.LN5772710-2"           2        0.0        0.0        0.0        0.0     0.0     0.0
"Line.LN8961760-1"           1        0.0        0.0        0.0        0.0     0.0     0.0        0.0        0.0        0.0        0.0
"Line.LN8961760-1"           2        0.0        0.0        0.0        0.0     0.0     0.0
"Line.LN6047556-1"           1        0.0        0.0        0.0        0.0     0.0     0.0        0.0        0.0        0.0        0.0
"Line.LN6047556-1"           2        0.0        0.0        0.0        0.0     0.0     0.0
"Line.LN6138603-1"           1        0.0        0.0        0.0        0.0     0.0     0.0        0.0        0.0        0.0        0.0
"Line.LN6138603-1"           2        0.0        0.0        0.0        0.0     0.0     0.0
"Line.LN6108139-1"           1        0.0        0.0        0.0        0.0     0.0     0.0        0.0        0.0        0.0        0.0
"Line.LN6108139-1"           2        0.0        0.0        0.0        0.0     0.0     0.0
"Line.LN6388581-2"           1        0.0        0.0        0.0        0.0     0.0     0.0        0.0        0.0        0.0        0.0
"Line.LN6388581-2"           2        0.0        0.0        0.0        0.0     0.0     0.0
"Line.LN5774460-1"           1        0.0        0.0        0.0        0.0     0.0     0.0        0.0        0.0        0.0        0.0
"Line.LN5774460-1"           2        0.0        0.0        0.0        0.0     0.0     0.0
"Line.LN5624387-1"           1        0.0        0.0        0.0        0.0     0.0     0.0        0.0        0.0        0.0        0.0
"Line.LN5624387-1"           2        0.0        0.0        0.0        0.0     0.0     0.0
"Line.LN6137087-1"           1        0.0        0.0        0.0        0.0     0.0     0.0        0.0        0.0        0.0        0.0
"Line.LN6137087-1"           2        0.0        0.0        0.0        0.0     0.0     0.0
"Line.LN6077809-1"           1        0.0        0.0        0.0        0.0     0.0     0.0        0.0        0.0        0.0        0.0
"Line.LN6077809-1"           2        0.0        0.0        0.0        0.0     0.0     0.0
"Line.LN6440079-1"           1        0.0        0.0        0.0        0.0     0.0     0.0        0.0        0.0        0.0        0.0
"Line.LN6440079-1"           2        0.0        0.0        0.0        0.0     0.0     0.0
"Line.LN5804794-1"           1        0.0        0.0        0.0        0.0     0.0     0.0        0.0        0.0        0.0        0.0
"Line.LN5804794-1"           2        0.0        0.0        0.0        0.0     0.0     0.0
"Line.LN5654484-1"           1        0.0        0.0        0.0        0.0     0.0     0.0        0.0        0.0        0.0        0.0
"Line.LN5654484-1"           2        0.0        0.0        0.0        0.0     0.0     0.0
"Line.LN5774465-1"           1        0.0        0.0        0.0        0.0     0.0     0.0        0.0        0.0        0.0        0.0
"Line.LN5774465-1"           2        0.0        0.0        0.0        0.0     0.0     0.0
"Line.LN5473349-1"           1     6009.5      657.7        9.8      -12.5     3.4   -16.0        0.0        0.0        0.0        0.0
"Line.LN5473349-1"           2    -6008.7     -655.7       -9.7       12.6    -3.3    16.2
"Line.LN6169253-1"           1        0.0        0.0        0.0        0.0     0.0     0.0        0.0        0.0        0.0        0.0
"Line.LN6169253-1"           2        0.0        0.0        0.0        0.0     0.0     0.0
"Line.LN6350536-1"           1        0.0        0.0        0.0        0.0     0.0     0.0        0.0        0.0        0.0        0.0
"Line.LN6350536-1"           2        0.0        0.0        0.0        0.0     0.0     0.0
"Line.LN6048523-1"           1        0.0        0.0        0.0        0.0     0.0     0.0        0.0        0.0        0.0        0.0
"Line.LN6048523-1"           2        0.0        0.0        0.0        0.0     0.0     0.0
"Line.LN5594152-1"           1        0.0        0.0        0.0        0.0     0.0     0.0        0.0        0.0        0.0        0.0
"Line.LN5594152-1"           2        0.0        0.0        0.0        0.0     0.0     0.0
"Line.LN5865248-1"           1      831.4      225.0       -0.4       -1.9    -1.9    -1.9        0.0        0.0        0.0        0.0
"Line.LN5865248-1"           2     -831.1     -224.9        0.4        1.9     1.9     1.9
"Line.LN6046143-1"           1        0.0        0.0        0.0        0.0     0.0     0.0        0.0        0.0        0.0        0.0
"Line.LN6046143-1"           2        0.0        0.0        0.0        0.0     0.0     0.0
"Line.LN5803287-1"           1        0.0        0.0        0.0        0.0     0.0     0.0        0.0        0.0        0.0        0.0
"Line.LN5803287-1"           2        0.0        0.0        0.0        0.0     0.0     0.0
"Line.LN5589094-1"           1        0.0        0.0        0.0        0.0     0.0     0.0        0.0        0.0        0.0        0.0
"Line.LN5589094-1"           2        0.0        0.0        0.0        0.0     0.0     0.0
"Line.LN5954983-1"           1        0.0        0.0        0.0        0.0     0.0     0.0        0.0        0.0        0.0        0.0
"Line.LN5954983-1"           2        0.0        0.0        0.0        0.0     0.0     0.0
"Line.LN5924696-2"           1        0.0        0.0        0.0        0.0     0.0     0.0        0.0        0.0        0.0        0.0
"Line.LN5924696-2"           2        0.0        0.0        0.0        0.0     0.0     0.0
"Line.LN6506311-4"           1        6.0        1.4        0.1        0.1     0.1     0.2        0.0        0.0        0.0        0.0
"Line.LN6506311-4"           2       -6.0       -1.4       -0.1       -0.1    -0.1    -0.2
"Line.LN5653493-1"           1        0.0        0.0        0.0        0.0     0.0     0.0        0.0        0.0        0.0        0.0
"Line.LN5653493-1"           2        0.0        0.0        0.0        0.0     0.0     0.0
"Line.LN5684836-1"           1     6139.2      716.4      -10.9      -16.0   -10.5   -29.9        0.0        0.0        0.0        0.0
"Line.LN5684836-1"           2    -6136.6     -710.1       11.0       16.1    10.6    30.2
"Line.LN5715016-3"           1        0.0        0.0        0.0        0.0     0.0     0.0        0.0        0.0        0.0        0.0
"Line.LN5715016-3"           2        0.0        0.0        0.0        0.0     0.0     0.0
"Line.LN6138614-1"           1      882.6     -695.5       -0.1       -1.8    -1.7    -1.6        0.0        0.0        0.0        0.0
"Line.LN6138614-1"           2     -881.8      695.7        0.2        1.8     1.7     1.6
"Line.LN6077781-2"           1     5003.5     1394.8       14.8       -7.6    -1.0   -11.0        0.0        0.0        0.0        0.0
"Line.LN6077781-2"           2    -4994.0    -1385.9      -14.7        7.7     1.1    11.1
"Line.LN5675121-1"           1        0.0        0.0        0.0        0.0     0.0     0.0        0.0        0.0        0.0        0.0
"Line.LN5675121-1"           2        0.0        0.0        0.0        0.0     0.0     0.0
"Line.LN5773046-1"           1        0.0        0.0        0.0        0.0     0.0     0.0        0.0        0.0        0.0        0.0
"Line.LN5773046-1"           2        0.0        0.0        0.0        0.0     0.0     0.0
"Line.LN6380809-2"           1      725.2      219.9       -3.8      -12.7     8.4   -11.1        0.0        0.0        0.0        0.0
"Line.LN6380809-2"           2     -725.1     -219.9        3.8       12.8    -8.4    11.1
"Line.LN6018326-1"           1        0.0        0.0        0.0        0.0     0.0     0.0        0.0        0.0        0.0        0.0
"Line.LN6018326-1"           2        0.0        0.0        0.0        0.0     0.0     0.0
"Line.LN5472356-1"           1        0.0        0.0        0.0        0.0     0.0     0.0        0.0        0.0        0.0        0.0
"Line.LN5472356-1"           2        0.0        0.0        0.0        0.0     0.0     0.0
"Line.LN6139641-1"           1     7449.0     1335.3       -7.5      -11.8    -8.7   -16.7        0.0        0.0        0.0        0.0
"Line.LN6139641-1"           2    -7446.9    -1330.2        7.6       11.9     8.8    17.0
"Line.LN6018341-1"           1     2647.6     -220.1        2.0        2.7     4.7     1.5        0.0        0.0        0.0        0.0
"Line.LN6018341-1"           2    -2646.9      221.6       -2.0       -2.7    -4.6    -1.4
"Line.LN6017302-1"           1      294.5       83.8       -3.3       -0.8    -0.3    -5.2        0.0        0.0        0.0        0.0
"Line.LN6017302-1"           2     -294.5      -83.8        3.4        0.8     0.3     5.3
"Line.LN6199505-1"           1        0.0        0.0        0.0        0.0     0.0     0.0        0.0        0.0        0.0        0.0
"Line.LN6199505-1"           2        0.0        0.0        0.0        0.0     0.0     0.0
"Line.LN5682327-1"           1        0.0        0.0        0.0        0.0     0.0     0.0        0.0        0.0        0.0        0.0
"Line.LN5682327-1"           2        0.0        0.0        0.0        0.0     0.0     0.0
"Line.LN6290243-1"           1        0.0        0.0        0.0        0.0     0.0     0.0        0.0        0.0        0.0        0.0
"Line.LN6290243-1"           2        0.0        0.0        0.0        0.0     0.0     0.0
"Line.X8223_48332_SW"        1     1384.2     -558.3        0.8       -2.3    -0.7    -2.1        0.0        0.0        0.0        0.0
"Line.X8223_48332_SW"        2    -1384.2      558.3       -0.8        2.3     0.7     2.1
"Line.LN6413567-3"           1     1384.5     -558.2        0.9       -2.3    -0.7    -2.1        0.0        0.0        0.0        0.0
"Line.LN6413567-3"           2    -1384.2      558.3       -0.8        2.3     0.7     2.1
"Line.LN5591731-3"           1     6379.4      847.6       -9.2      -17.3   -15.1   -26.0        0.0        0.0        0.0        0.0
"Line.LN5591731-3"           2    -6379.4     -847.4        9.2       17.3    15.1    26.0
"Line.LN5653470-1"           1       29.2        7.7        0.0        0.0     0.1     0.0        0.0        0.0        0.0        0.0
"Line.LN5653470-1"           2      -29.2       -7.8       -0.0       -0.0    -0.1    -0.0
"Line.LN6017316-1"           1        0.0        0.0        0.0        0.0     0.0     0.0        0.0        0.0        0.0        0.0
"Line.LN6017316-1"           2        0.0        0.0        0.0        0.0     0.0     0.0
"Line.LN5926299-1"           1        0.0        0.0        0.0        0.0     0.0     0.0        0.0        0.0        0.0        0.0
"Line.LN5926299-1"           2        0.0        0.0        0.0        0.0     0.0     0.0
"Line.LN5683831-1"           1      862.9      232.9       -0.3       -1.6    -1.5    -1.6        0.0        0.0        0.0        0.0
"Line.LN5683831-1"           2     -862.4     -232.8        0.4        1.7     1.6     1.6
"Line.LN6352700-1"           1        0.0        0.0        0.0        0.0     0.0     0.0        0.0        0.0        0.0        0.0
"Line.LN6352700-1"           2        0.0        0.0        0.0        0.0     0.0     0.0
"Line.LN6047570-1"           1        0.0        0.0        0.0        0.0     0.0     0.0        0.0        0.0        0.0        0.0
"Line.LN6047570-1"           2        0.0        0.0        0.0        0.0     0.0     0.0
"Line.LN5624342-1"           1     6180.3      743.3      -11.1      -15.7   -10.0   -30.0        0.0        0.0        0.0        0.0
"Line.LN5624342-1"           2    -6178.2     -738.2       11.2       15.8    10.1    30.2
"Line.LN6259992-1"           1        0.0        0.0        0.0        0.0     0.0     0.0        0.0        0.0        0.0        0.0
"Line.LN6259992-1"           2        0.0        0.0        0.0        0.0     0.0     0.0
"Line.LN5841919-1"           1        0.0        0.0        0.0        0.0     0.0     0.0        0.0        0.0        0.0        0.0
"Line.LN5841919-1"           2        0.0        0.0        0.0        0.0     0.0     0.0
"Line.LN6380811-1"           1        0.0        0.0        0.0        0.0     0.0     0.0        0.0        0.0        0.0        0.0
"Line.LN6380811-1"           2        0.0        0.0        0.0        0.0     0.0     0.0
"Line.LN5683832-1"           1        0.0        0.0        0.0        0.0     0.0     0.0        0.0        0.0        0.0        0.0
"Line.LN5683832-1"           2        0.0        0.0        0.0        0.0     0.0     0.0
"Line.LN6077778-1"           1        0.0        0.0        0.0        0.0     0.0     0.0        0.0        0.0        0.0        0.0
"Line.LN6077778-1"           2        0.0        0.0        0.0        0.0     0.0     0.0
"Line.LN5561442-2"           1     7366.6     1244.8       -9.2      -13.8   -10.6   -21.8        0.0        0.0        0.0        0.0
"Line.LN5561442-2"           2    -7363.7    -1237.6        9.3       13.9    10.8    22.2
"Line.LN6259983-1"           1        0.0        0.0        0.0        0.0     0.0     0.0        0.0        0.0        0.0        0.0
"Line.LN6259983-1"           2        0.0        0.0        0.0        0.0     0.0     0.0
"Line.LN5865244-1"           1        0.0        0.0        0.0        0.0     0.0     0.0        0.0        0.0        0.0        0.0
"Line.LN5865244-1"           2        0.0        0.0        0.0        0.0     0.0     0.0
"Line.LN6350555-1"           1        0.0        0.0        0.0        0.0     0.0     0.0        0.0        0.0        0.0        0.0
"Line.LN6350555-1"           2        0.0        0.0        0.0        0.0     0.0     0.0
"Line.LN5714039-1"           1        0.0        0.0        0.0        0.0     0.0     0.0        0.0        0.0        0.0        0.0
...