MATDSS_ver0.96/DSS_Files/8500-Node/Last P.txt

CIRCUIT ELEMENT POWER FLOW

(Power Flow into element from indicated Bus)

Power Delivery Elements

  Bus                Phase     kW     +j   kvar         kVA         PF

ELEMENT = "Vsource.SOURCE"
SOURCEBUS                1     -4109.4 +j   -657.4     4161.7       0.9874
SOURCEBUS                2     -3767.4 +j   -463.3     3795.8       0.9925
SOURCEBUS                3     -4106.6 +j   -264.2     4115.1       0.9979
   TERMINAL TOTAL ............-11983.4 +j  -1384.9    12063.2       0.9934
SOURCEBUS                0         0.0 +j      0.0        0.0       1.0000
SOURCEBUS                0         0.0 +j      0.0        0.0       1.0000
SOURCEBUS                0         0.0 +j      0.0        0.0       1.0000
   TERMINAL TOTAL ............     0.0 +j      0.0        0.0       1.0000

ELEMENT = "Line.HVMV_SUB_CONNECTOR"
_HVMV_SUB_LSB            1      4152.3 +j    257.7     4160.3       0.9981
_HVMV_SUB_LSB            2      3992.2 +j    334.4     4006.2       0.9965
_HVMV_SUB_LSB            3      3774.1 +j   -104.7     3775.6      -0.9996
   TERMINAL TOTAL ............ 11918.6 +j    487.5    11928.6       0.9992
HVMV_SUB_48332           1     -4152.3 +j   -257.7     4160.3       0.9981
HVMV_SUB_48332           2     -3992.2 +j   -334.4     4006.2       0.9965
HVMV_SUB_48332           3     -3774.1 +j    104.7     3775.6      -0.9996
   TERMINAL TOTAL ............-11918.6 +j   -487.5    11928.6       0.9992

ELEMENT = "Line.LN5502549-1"
M1009763                 2        13.8 +j      3.7       14.3       0.9662
   TERMINAL TOTAL ............    13.8 +j      3.7       14.3       0.9662
L2673322                 2       -13.8 +j     -3.7       14.3       0.9662
   TERMINAL TOTAL ............   -13.8 +j     -3.7       14.3       0.9662

ELEMENT = "Line.LN6259988-1"
M1069148                 3        10.3 +j      2.7       10.7       0.9664
   TERMINAL TOTAL ............    10.3 +j      2.7       10.7       0.9664
L2673309                 3       -10.3 +j     -2.8       10.7       0.9661
   TERMINAL TOTAL ............   -10.3 +j     -2.8       10.7       0.9661

ELEMENT = "Line.LN6077796-1"
M1069588                 2        11.8 +j      3.2       12.2       0.9663
   TERMINAL TOTAL ............    11.8 +j      3.2       12.2       0.9663
L2804270                 2       -11.8 +j     -3.2       12.2       0.9662
   TERMINAL TOTAL ............   -11.8 +j     -3.2       12.2       0.9662

ELEMENT = "Line.LN5835135-2"
M3036164                 2       114.8 +j     30.3      118.8       0.9669
   TERMINAL TOTAL ............   114.8 +j     30.3      118.8       0.9669
L2935553                 2      -114.8 +j    -30.3      118.8       0.9669
   TERMINAL TOTAL ............  -114.8 +j    -30.3      118.8       0.9669

ELEMENT = "Line.LN5896826-1"
M1209749                 2         5.9 +j      1.6        6.1       0.9671
   TERMINAL TOTAL ............     5.9 +j      1.6        6.1       0.9671
L2748840                 2        -5.9 +j     -1.6        6.1       0.9660
   TERMINAL TOTAL ............    -5.9 +j     -1.6        6.1       0.9660

ELEMENT = "Line.LN5714038-1"
M1108264                 2        15.8 +j      4.1       16.3       0.9680
   TERMINAL TOTAL ............    15.8 +j      4.1       16.3       0.9680
M1108263                 2       -15.8 +j     -4.1       16.3       0.9678
   TERMINAL TOTAL ............   -15.8 +j     -4.1       16.3       0.9678

ELEMENT = "Line.LN5653457-1"
L3085398                 1       140.5 +j     37.1      145.4       0.9668
L3085398                 2       298.2 +j     79.7      308.7       0.9661
L3085398                 3       113.9 +j     30.0      117.8       0.9670
   TERMINAL TOTAL ............   552.7 +j    146.8      571.9       0.9665
M1026891                 1      -140.5 +j    -37.1      145.3       0.9668
M1026891                 2      -298.0 +j    -79.6      308.4       0.9662
M1026891                 3      -113.9 +j    -30.0      117.8       0.9669
   TERMINAL TOTAL ............  -552.4 +j   -146.7      571.5       0.9665

ELEMENT = "Line.LN5835173-1"
L3216367                 1       202.2 +j     53.0      209.0       0.9674
L3216367                 2       446.6 +j    121.4      462.8       0.9650
L3216367                 3       340.5 +j     91.4      352.5       0.9658
   TERMINAL TOTAL ............   989.3 +j    265.7     1024.4       0.9658
M1069468                 1      -202.2 +j    -53.0      209.0       0.9673
M1069468                 2      -446.5 +j   -121.3      462.7       0.9650
M1069468                 3      -340.4 +j    -91.3      352.5       0.9658
   TERMINAL TOTAL ............  -989.1 +j   -265.6     1024.2       0.9658

ELEMENT = "Line.LN6321415-1"
M1142800                 2         9.9 +j      2.6       10.2       0.9679
   TERMINAL TOTAL ............     9.9 +j      2.6       10.2       0.9679
M1142799                 2        -9.9 +j     -2.6       10.2       0.9677
   TERMINAL TOTAL ............    -9.9 +j     -2.6       10.2       0.9677

ELEMENT = "Line.LN5565092-1"
M1047592                 3        15.5 +j      4.1       16.1       0.9663
   TERMINAL TOTAL ............    15.5 +j      4.1       16.1       0.9663
P827512                  3       -15.5 +j     -4.1       16.1       0.9663
   TERMINAL TOTAL ............   -15.5 +j     -4.1       16.1       0.9663

ELEMENT = "Line.LN6073648-1"
M1047339                 1        21.6 +j      5.7       22.3       0.9665
   TERMINAL TOTAL ............    21.6 +j      5.7       22.3       0.9665
P895104                  1       -21.6 +j     -5.7       22.3       0.9665
   TERMINAL TOTAL ............   -21.6 +j     -5.7       22.3       0.9665

ELEMENT = "Line.LN5774457-1"
M1026915                 1       210.9 +j     56.1      218.2       0.9664
M1026915                 2       170.4 +j     44.9      176.2       0.9670
M1026915                 3       163.8 +j     43.3      169.5       0.9668
   TERMINAL TOTAL ............   545.1 +j    144.3      563.9       0.9667
M1026920                 1      -210.8 +j    -56.0      218.1       0.9664
M1026920                 2      -170.4 +j    -44.9      176.2       0.9670
M1026920                 3      -163.8 +j    -43.3      169.5       0.9668
   TERMINAL TOTAL ............  -545.0 +j   -144.2      563.8       0.9667

ELEMENT = "Line.LN5534966-3"
N1138596                 1        78.4 +j     20.9       81.1       0.9662
   TERMINAL TOTAL ............    78.4 +j     20.9       81.1       0.9662
L3254207                 1       -78.4 +j    -20.9       81.1       0.9662
   TERMINAL TOTAL ............   -78.4 +j    -20.9       81.1       0.9662

ELEMENT = "Line.LN5859996-1"
M1069464                 2        19.8 +j      5.3       20.5       0.9663
   TERMINAL TOTAL ............    19.8 +j      5.3       20.5       0.9663
P873787                  2       -19.8 +j     -5.3       20.5       0.9662
   TERMINAL TOTAL ............   -19.8 +j     -5.3       20.5       0.9662

ELEMENT = "Line.LN6138610-2"
N1144665                 1       851.4 +j    227.6      881.3       0.9661
N1144665                 2       651.5 +j    178.0      675.4       0.9646
N1144665                 3       744.7 +j    201.3      771.4       0.9653
   TERMINAL TOTAL ............  2247.5 +j    607.0     2328.0       0.9654
M1047515                 1      -850.8 +j   -227.4      880.6       0.9661
M1047515                 2      -651.1 +j   -177.9      675.0       0.9646
M1047515                 3      -744.2 +j   -201.2      770.9       0.9653
   TERMINAL TOTAL ............ -2246.1 +j   -606.5     2326.6       0.9654

ELEMENT = "Line.LN6258435-3"
N1137002                 1        18.0 +j      4.8       18.6       0.9662
   TERMINAL TOTAL ............    18.0 +j      4.8       18.6       0.9662
M1047707                 1       -18.0 +j     -4.8       18.6       0.9660
   TERMINAL TOTAL ............   -18.0 +j     -4.8       18.6       0.9660

ELEMENT = "Line.LN5804790-1"
L2729406                 3        10.3 +j      2.7       10.7       0.9667
   TERMINAL TOTAL ............    10.3 +j      2.7       10.7       0.9667
L2897768                 3       -10.3 +j     -2.8       10.7       0.9662
   TERMINAL TOTAL ............   -10.3 +j     -2.8       10.7       0.9662

ELEMENT = "Line.LN6900591-14"
L3649301                 1        32.5 +j      8.7       33.6       0.9661
   TERMINAL TOTAL ............    32.5 +j      8.7       33.6       0.9661
L3649302                 1       -32.5 +j     -8.7       33.6       0.9661
   TERMINAL TOTAL ............   -32.5 +j     -8.7       33.6       0.9661

ELEMENT = "Line.LN6409873-1"
L2970842                 2        76.2 +j     19.8       78.7       0.9678
   TERMINAL TOTAL ............    76.2 +j     19.8       78.7       0.9678
M1089113                 2       -76.2 +j    -19.8       78.7       0.9678
   TERMINAL TOTAL ............   -76.2 +j    -19.8       78.7       0.9678

ELEMENT = "Line.LN6014135-1"
M1047312                 1        67.6 +j     18.0       69.9       0.9663
   TERMINAL TOTAL ............    67.6 +j     18.0       69.9       0.9663
P893163                  1       -67.6 +j    -18.0       69.9       0.9663
   TERMINAL TOTAL ............   -67.6 +j    -18.0       69.9       0.9663

ELEMENT = "Line.LN6077784-1"
L2822871                 1       408.0 +j    108.5      422.2       0.9664
L2822871                 2       495.3 +j    133.2      513.0       0.9657
L2822871                 3       304.9 +j     80.8      315.5       0.9667
   TERMINAL TOTAL ............  1208.3 +j    322.5     1250.6       0.9662
M1026872                 1      -407.8 +j   -108.4      422.0       0.9664
M1026872                 2      -495.2 +j   -133.1      512.8       0.9657
M1026872                 3      -304.9 +j    -80.7      315.4       0.9667
   TERMINAL TOTAL ............ -1207.9 +j   -322.3     1250.2       0.9662

ELEMENT = "Line.LN5744338-1"
M1026312                 2       185.7 +j     49.5      192.2       0.9663
   TERMINAL TOTAL ............   185.7 +j     49.5      192.2       0.9663
L2973163                 2      -185.6 +j    -49.4      192.1       0.9663
   TERMINAL TOTAL ............  -185.6 +j    -49.4      192.1       0.9663

ELEMENT = "Line.LN6991381-4"
L3728038                 1        36.1 +j      9.6       37.3       0.9661
   TERMINAL TOTAL ............    36.1 +j      9.6       37.3       0.9661
L3728039                 1       -36.1 +j     -9.6       37.3       0.9660
   TERMINAL TOTAL ............   -36.1 +j     -9.6       37.3       0.9660

ELEMENT = "Line.LN5774480-1"
M1069567                 2       224.2 +j     59.8      232.1       0.9663
   TERMINAL TOTAL ............   224.2 +j     59.8      232.1       0.9663
M1069582                 2      -224.0 +j    -59.7      231.8       0.9663
   TERMINAL TOTAL ............  -224.0 +j    -59.7      231.8       0.9663

ELEMENT = "Line.LN5986938-3"
N1140830                 1        37.9 +j     10.0       39.2       0.9670
   TERMINAL TOTAL ............    37.9 +j     10.0       39.2       0.9670
L3216351                 1       -37.9 +j    -10.0       39.2       0.9670
   TERMINAL TOTAL ............   -37.9 +j    -10.0       39.2       0.9670

ELEMENT = "Line.LN5894230-1"
L2952007                 3        10.3 +j      2.7       10.7       0.9665
   TERMINAL TOTAL ............    10.3 +j      2.7       10.7       0.9665
L2861158                 3       -10.3 +j     -2.8       10.7       0.9661
   TERMINAL TOTAL ............   -10.3 +j     -2.8       10.7       0.9661

ELEMENT = "Line.LN5683858-3"
N1140827                 1        18.1 +j      4.8       18.7       0.9663
N1140827                 2        29.7 +j      7.9       30.8       0.9664
N1140827                 3        20.8 +j      5.5       21.5       0.9664
   TERMINAL TOTAL ............    68.6 +j     18.3       71.0       0.9664
M1026726                 1       -18.1 +j     -4.8       18.7       0.9662
M1026726                 2       -29.7 +j     -7.9       30.8       0.9664
M1026726                 3       -20.8 +j     -5.5       21.5       0.9664
   TERMINAL TOTAL ............   -68.6 +j    -18.3       71.0       0.9663

ELEMENT = "Line.LN5920279-5"
L2730106                 1      2360.9 +j    351.3     2386.9       0.9891
L2730106                 2      2272.0 +j    360.9     2300.5       0.9876
L2730106                 3      1676.6 +j     62.7     1677.8       0.9993
   TERMINAL TOTAL ............  6309.5 +j    774.8     6356.9       0.9925
N1142099                 1     -2360.1 +j   -350.2     2386.0       0.9892
N1142099                 2     -2271.8 +j   -359.8     2300.1       0.9877
N1142099                 3     -1676.6 +j    -62.4     1677.8       0.9993
   TERMINAL TOTAL ............ -6308.5 +j   -772.4     6355.6       0.9926

ELEMENT = "Line.LN6439600-1"
M1026658                 1         9.0 +j      2.4        9.3       0.9663
   TERMINAL TOTAL ............     9.0 +j      2.4        9.3       0.9663
L3172805                 1        -9.0 +j     -2.4        9.3       0.9660
   TERMINAL TOTAL ............    -9.0 +j     -2.4        9.3       0.9660

ELEMENT = "Line.LN5589097-1"
P895112                  1        13.5 +j      3.6       14.0       0.9661
   TERMINAL TOTAL ............    13.5 +j      3.6       14.0       0.9661
L3048962                 1       -13.5 +j     -3.6       14.0       0.9661
   TERMINAL TOTAL ............   -13.5 +j     -3.6       14.0       0.9661

ELEMENT = "Line.LN5651975-1"
L2991914                 1       436.9 +j    117.6      452.5       0.9656
L2991914                 2       106.3 +j     27.6      109.8       0.9679
L2991914                 3       237.8 +j     62.3      245.8       0.9673
   TERMINAL TOTAL ............   781.0 +j    207.5      808.1       0.9665
M1047503                 1      -436.7 +j   -117.5      452.2       0.9657
M1047503                 2      -106.3 +j    -27.6      109.8       0.9679
M1047503                 3      -237.7 +j    -62.3      245.8       0.9673
   TERMINAL TOTAL ............  -780.8 +j   -207.4      807.8       0.9665

ELEMENT = "Line.LN5865236-1"
M1047751                 1        18.0 +j      4.8       18.6       0.9662
   TERMINAL TOTAL ............    18.0 +j      4.8       18.6       0.9662
L2973154                 1       -18.0 +j     -4.8       18.6       0.9662
   TERMINAL TOTAL ............   -18.0 +j     -4.8       18.6       0.9662

ELEMENT = "Line.LN5593232-1"
L3010565                 3        10.3 +j      2.7       10.7       0.9665
   TERMINAL TOTAL ............    10.3 +j      2.7       10.7       0.9665
L2897775                 3       -10.3 +j     -2.8       10.7       0.9661
   TERMINAL TOTAL ............   -10.3 +j     -2.8       10.7       0.9661

ELEMENT = "Line.LN5740283-1"
M1125955                 3        12.4 +j      3.3       12.8       0.9663
   TERMINAL TOTAL ............    12.4 +j      3.3       12.8       0.9663
M1125957                 3       -12.4 +j     -3.3       12.8       0.9663
   TERMINAL TOTAL ............   -12.4 +j     -3.3       12.8       0.9663

ELEMENT = "Line.LN6106559-1"
M1069640                 2        27.6 +j      7.3       28.6       0.9665
   TERMINAL TOTAL ............    27.6 +j      7.3       28.6       0.9665
L2804269                 2       -27.6 +j     -7.4       28.6       0.9664
   TERMINAL TOTAL ............   -27.6 +j     -7.4       28.6       0.9664

ELEMENT = "Line.LN5714056-3"
M1026702                 1       361.3 +j     96.0      373.9       0.9664
M1026702                 2        81.4 +j     21.3       84.1       0.9675
M1026702                 3       180.0 +j     47.5      186.2       0.9669
   TERMINAL TOTAL ............   622.7 +j    164.8      644.2       0.9667
N1139551                 1      -360.8 +j    -95.8      373.3       0.9665
N1139551                 2       -81.4 +j    -21.3       84.1       0.9674
N1139551                 3      -179.8 +j    -47.5      186.0       0.9668
   TERMINAL TOTAL ............  -622.0 +j   -164.6      643.4       0.9667

ELEMENT = "Line.LN5985355-3"
N1136355                 2       393.3 +j    105.1      407.1       0.9661
   TERMINAL TOTAL ............   393.3 +j    105.1      407.1       0.9661
L2783231                 2      -392.9 +j   -105.0      406.7       0.9661
   TERMINAL TOTAL ............  -392.9 +j   -105.0      406.7       0.9661

ELEMENT = "Line.LN5531956-1"
L2748143                 1         9.0 +j      2.4        9.3       0.9662
   TERMINAL TOTAL ............     9.0 +j      2.4        9.3       0.9662
L3251854                 1        -9.0 +j     -2.4        9.3       0.9659
   TERMINAL TOTAL ............    -9.0 +j     -2.4        9.3       0.9659

ELEMENT = "Line.LN5650048-1"
M1069610                 2         9.9 +j      2.6       10.2       0.9665
   TERMINAL TOTAL ............     9.9 +j      2.6       10.2       0.9665
M1069600                 2        -9.9 +j     -2.6       10.2       0.9663
   TERMINAL TOTAL ............    -9.9 +j     -2.6       10.2       0.9663

ELEMENT = "Line.LN6290203-1"
M1069424                 1       155.1 +j     40.7      160.4       0.9673
M1069424                 2       383.6 +j    103.6      397.3       0.9654
M1069424                 3       278.1 +j     74.1      287.8       0.9663
   TERMINAL TOTAL ............   816.8 +j    218.4      845.5       0.9661
L2935549                 1      -155.1 +j    -40.7      160.4       0.9672
L2935549                 2      -383.4 +j   -103.5      397.1       0.9655
L2935549                 3      -278.1 +j    -74.0      287.8       0.9663
   TERMINAL TOTAL ............  -816.6 +j   -218.2      845.2       0.9661

ELEMENT = "Line.LN6134414-1"
P895089                  3        20.7 +j      5.5       21.4       0.9665
   TERMINAL TOTAL ............    20.7 +j      5.5       21.4       0.9665
L3235242                 3       -20.7 +j     -5.5       21.4       0.9665
   TERMINAL TOTAL ............   -20.7 +j     -5.5       21.4       0.9665

ELEMENT = "Line.LN6259998-2"
M1026795                 3        12.4 +j      3.3       12.8       0.9663
   TERMINAL TOTAL ............    12.4 +j      3.3       12.8       0.9663
N1140522                 3       -12.4 +j     -3.3       12.8       0.9662
   TERMINAL TOTAL ............   -12.4 +j     -3.3       12.8       0.9662

ELEMENT = "Line.LN6078767-1"
L3030199                 1       759.1 +j   -104.8      766.3      -0.9906
L3030199                 2       907.8 +j    -53.6      909.4      -0.9983
L3030199                 3      1156.3 +j      0.4     1156.3       1.0000
   TERMINAL TOTAL ............  2823.2 +j   -158.0     2827.6      -0.9984
M1125934                 1      -759.0 +j    104.9      766.3      -0.9906
M1125934                 2      -907.7 +j     53.7      909.3      -0.9983
M1125934                 3     -1156.2 +j     -0.1     1156.2       1.0000
   TERMINAL TOTAL ............ -2822.9 +j    158.5     2827.4      -0.9984

ELEMENT = "Line.LN6017300-1"
M1069189                 3         6.2 +j      1.6        6.4       0.9665
   TERMINAL TOTAL ............     6.2 +j      1.6        6.4       0.9665
L2860487                 3        -6.2 +j     -1.7        6.4       0.9660
   TERMINAL TOTAL ............    -6.2 +j     -1.7        6.4       0.9660

ELEMENT = "Line.LN8979257-2"
221-312488               1         9.0 +j      2.3        9.3       0.9676
221-312488               2         9.9 +j      2.6       10.2       0.9676
221-312488               3        10.3 +j      2.7       10.7       0.9676
   TERMINAL TOTAL ............    29.2 +j      7.6       30.2       0.9676
M1089183                 1        -9.0 +j     -2.4        9.3       0.9673
M1089183                 2        -9.9 +j     -2.6       10.2       0.9673
M1089183                 3       -10.3 +j     -2.7       10.7       0.9673
   TERMINAL TOTAL ............   -29.2 +j     -7.7       30.2       0.9673

ELEMENT = "Line.LN81048109-1"
M1108464                 2        30.0 +j      7.8       31.0       0.9676
   TERMINAL TOTAL ............    30.0 +j      7.8       31.0       0.9676
L3102286                 2       -30.0 +j     -7.9       31.0       0.9672
   TERMINAL TOTAL ............   -30.0 +j     -7.9       31.0       0.9672

ELEMENT = "Line.293471"
F739845                  1         9.0 +j      2.4        9.3       0.9661
F739845                  2         9.9 +j      2.6       10.2       0.9663
F739845                  3        10.3 +j      2.8       10.7       0.9662
   TERMINAL TOTAL ............    29.2 +j      7.8       30.2       0.9662
293471                   1        -9.0 +j     -2.4        9.3       0.9659
293471                   2        -9.9 +j     -2.6       10.2       0.9661
293471                   3       -10.3 +j     -2.8       10.7       0.9661
   TERMINAL TOTAL ............   -29.2 +j     -7.8       30.2       0.9661

ELEMENT = "Line.LN5534965-2"
P827499                  1         9.0 +j      2.4        9.3       0.9660
   TERMINAL TOTAL ............     9.0 +j      2.4        9.3       0.9660
N1139254                 1        -9.0 +j     -2.4        9.3       0.9660
   TERMINAL TOTAL ............    -9.0 +j     -2.4        9.3       0.9660

ELEMENT = "Line.LN5655683-1"
M1026657                 1       141.8 +j     37.7      146.8       0.9665
   TERMINAL TOTAL ............   141.8 +j     37.7      146.8       0.9665
M1026656                 1      -141.8 +j    -37.7      146.8       0.9665
   TERMINAL TOTAL ............  -141.8 +j    -37.7      146.8       0.9665

ELEMENT = "Line.LN5686247-1"
M1108299                 2        13.8 +j      3.7       14.3       0.9667
   TERMINAL TOTAL ............    13.8 +j      3.7       14.3       0.9667
M1108300                 2       -13.8 +j     -3.7       14.3       0.9667
   TERMINAL TOTAL ............   -13.8 +j     -3.7       14.3       0.9667

ELEMENT = "Line.LN6048642-1"
L3198355                 2         0.0 +j     -0.0        0.0      -0.0000
   TERMINAL TOTAL ............     0.0 +j     -0.0        0.0      -0.0000
L2805037                 2         0.0 +j      0.0        0.0       0.9359
   TERMINAL TOTAL ............     0.0 +j      0.0        0.0       0.9359

ELEMENT = "Line.LN5928544-3"
N1137994                 3       103.5 +j     27.5      107.1       0.9665
   TERMINAL TOTAL ............   103.5 +j     27.5      107.1       0.9665
M1069484                 3      -103.5 +j    -27.5      107.1       0.9665
   TERMINAL TOTAL ............  -103.5 +j    -27.5      107.1       0.9665

ELEMENT = "Line.LN6108172-1"
L2860504                 1        18.0 +j      4.8       18.6       0.9665
   TERMINAL TOTAL ............    18.0 +j      4.8       18.6       0.9665
L2860493                 1       -18.0 +j     -4.8       18.6       0.9661
   TERMINAL TOTAL ............   -18.0 +j     -4.8       18.6       0.9661

ELEMENT = "Line.LN5532754-1"
M1026783                 1       400.9 +j    107.3      415.0       0.9660
M1026783                 2       106.2 +j     27.7      109.8       0.9676
M1026783                 3       197.7 +j     51.8      204.3       0.9673
   TERMINAL TOTAL ............   704.8 +j    186.8      729.1       0.9666
M1026780                 1      -400.8 +j   -107.3      414.9       0.9660
M1026780                 2      -106.2 +j    -27.7      109.8       0.9676
M1026780                 3      -197.6 +j    -51.8      204.3       0.9673
   TERMINAL TOTAL ............  -704.7 +j   -186.8      729.0       0.9666

ELEMENT = "Line.LN5591834-1"
P895111                  3        26.8 +j      7.1       27.8       0.9667
   TERMINAL TOTAL ............    26.8 +j      7.1       27.8       0.9667
L2895496                 3       -26.8 +j     -7.1       27.8       0.9666
   TERMINAL TOTAL ............   -26.8 +j     -7.1       27.8       0.9666

ELEMENT = "Line.LN6347196-2"
N1140819                 1       194.9 +j     51.6      201.6       0.9667
N1140819                 2        75.5 +j     19.8       78.0       0.9674
N1140819                 3       179.6 +j     47.5      185.8       0.9668
   TERMINAL TOTAL ............   450.0 +j    118.9      465.4       0.9668
M1026700                 1      -194.8 +j    -51.6      201.5       0.9667
M1026700                 2       -75.5 +j    -19.8       78.0       0.9674
M1026700                 3      -179.6 +j    -47.5      185.8       0.9668
   TERMINAL TOTAL ............  -449.9 +j   -118.9      465.3       0.9668

ELEMENT = "Line.LN5532741-1"
M1089173                 3        63.1 +j     16.7       65.2       0.9668
   TERMINAL TOTAL ............    63.1 +j     16.7       65.2       0.9668
L2935551                 3       -63.1 +j    -16.7       65.2       0.9667
   TERMINAL TOTAL ............   -63.1 +j    -16.7       65.2       0.9667

ELEMENT = "Line.LN5804803-1"
M1026344                 1         5.4 +j      1.4        5.6       0.9679
   TERMINAL TOTAL ............     5.4 +j      1.4        5.6       0.9679
M1026364                 1        -5.4 +j     -1.4        5.6       0.9662
   TERMINAL TOTAL ............    -5.4 +j     -1.4        5.6       0.9662

ELEMENT = "Line.LN6169248-1"
L2879070                 1       792.5 +j    214.1      820.9       0.9654
L2879070                 2       531.9 +j    145.6      551.5       0.9645
L2879070                 3       326.4 +j     86.4      337.7       0.9667
   TERMINAL TOTAL ............  1650.8 +j    446.1     1710.0       0.9654
L3216345                 1      -791.7 +j   -213.5      820.0       0.9655
L3216345                 2      -531.8 +j   -145.3      551.3       0.9646
L3216345                 3      -326.3 +j    -86.4      337.6       0.9667
   TERMINAL TOTAL ............ -1649.9 +j   -445.2     1708.9       0.9655

ELEMENT = "Line.LN5532786-2"
M1069428                 2        15.8 +j      4.2       16.3       0.9663
   TERMINAL TOTAL ............    15.8 +j      4.2       16.3       0.9663
N1139257                 2       -15.8 +j     -4.2       16.4       0.9663
   TERMINAL TOTAL ............   -15.8 +j     -4.2       16.4       0.9663

ELEMENT = "Line.LN5744339-1"
L2991919                 1       114.5 +j     30.5      118.5       0.9663
   TERMINAL TOTAL ............   114.5 +j     30.5      118.5       0.9663
M1026361                 1      -114.5 +j    -30.5      118.5       0.9663
   TERMINAL TOTAL ............  -114.5 +j    -30.5      118.5       0.9663

ELEMENT = "Line.LN5531255-3"
N1147857                 1       118.1 +j     31.4      122.2       0.9664
   TERMINAL TOTAL ............   118.1 +j     31.4      122.2       0.9664
M1009742                 1      -118.1 +j    -31.4      122.2       0.9664
   TERMINAL TOTAL ............  -118.1 +j    -31.4      122.2       0.9664

ELEMENT = "Line.LN5926308-2"
Q14412                   1       283.5 +j     75.0      293.3       0.9668
Q14412                   2       342.4 +j     92.6      354.7       0.9653
Q14412                   3       137.6 +j     36.1      142.3       0.9672
   TERMINAL TOTAL ............   763.5 +j    203.7      790.2       0.9662
M1047325                 1      -283.4 +j    -74.9      293.2       0.9668
M1047325                 2      -342.3 +j    -92.5      354.6       0.9654
M1047325                 3      -137.6 +j    -36.1      142.3       0.9672
   TERMINAL TOTAL ............  -763.3 +j   -203.6      790.0       0.9662

ELEMENT = "Line.LN5683856-3"
N1139263                 1         9.0 +j      2.4        9.3       0.9660
   TERMINAL TOTAL ............     9.0 +j      2.4        9.3       0.9660
L3048227                 1        -9.0 +j     -2.4        9.3       0.9659
   TERMINAL TOTAL ............    -9.0 +j     -2.4        9.3       0.9659

ELEMENT = "Line.LN6171502-1"
P827506                  1        14.4 +j      3.8       14.9       0.9664
   TERMINAL TOTAL ............    14.4 +j      3.8       14.9       0.9664
M1069469                 1       -14.4 +j     -3.8       14.9       0.9664
   TERMINAL TOTAL ............   -14.4 +j     -3.8       14.9       0.9664

ELEMENT = "Line.LN5593228-1"
M1027019                 2         9.9 +j      2.6       10.2       0.9663
   TERMINAL TOTAL ............     9.9 +j      2.6       10.2       0.9663
L2785522                 2        -9.9 +j     -2.6       10.2       0.9661
   TERMINAL TOTAL ............    -9.9 +j     -2.6       10.2       0.9661

ELEMENT = "Line.LN6380800-1"
L3216338                 2         9.9 +j      2.6       10.2       0.9663
   TERMINAL TOTAL ............     9.9 +j      2.6       10.2       0.9663
L2973146                 2        -9.9 +j     -2.6       10.2       0.9661
   TERMINAL TOTAL ............    -9.9 +j     -2.6       10.2       0.9661

ELEMENT = "Line.LN6199525-2"
M3037452                 1         3.6 +j      1.0        3.7       0.9665
   TERMINAL TOTAL ............     3.6 +j      1.0        3.7       0.9665
L2973164                 1        -3.6 +j     -1.0        3.7       0.9659
   TERMINAL TOTAL ............    -3.6 +j     -1.0        3.7       0.9659

ELEMENT = "Line.LN5772710-2"
L3120376                 1        72.0 +j     19.2       74.5       0.9662
   TERMINAL TOTAL ............    72.0 +j     19.2       74.5       0.9662
M1026925                 1       -72.0 +j    -19.2       74.5       0.9662
   TERMINAL TOTAL ............   -72.0 +j    -19.2       74.5       0.9662

ELEMENT = "Line.LN8961760-1"
M1047612                 3        36.3 +j      9.5       37.5       0.9674
   TERMINAL TOTAL ............    36.3 +j      9.5       37.5       0.9674
P828360                  3       -36.3 +j     -9.5       37.5       0.9674
   TERMINAL TOTAL ............   -36.3 +j     -9.5       37.5       0.9674

ELEMENT = "Line.LN6047556-1"
M1089195                 3        10.3 +j      2.7       10.7       0.9664
   TERMINAL TOTAL ............    10.3 +j      2.7       10.7       0.9664
L3141393                 3       -10.3 +j     -2.8       10.7       0.9661
   TERMINAL TOTAL ............   -10.3 +j     -2.8       10.7       0.9661

ELEMENT = "Line.LN6138603-1"
...