MATDSS_ver0.96/DSS_Files/8500-Node/ieee123_Power_seq_kVA.txt

SYMMETRICAL COMPONENT POWERS BY CIRCUIT ELEMENT (first 3 phases)                                     Excess Power

Element             Term    P1(kW)   Q1(kvar)       P2         Q2      P0      Q0       P_Norm      Q_Norm     P_Emerg    Q_Emerg

"Vsource.SOURCE"     1    -3615.3    -1311.5        0.0        0.0    -0.0     0.0
"Vsource.SOURCE"     2        0.0        0.0        0.0        0.0     0.0     0.0
"Transformer.REG1A"  1     3615.3     1311.5       -0.0       -0.0     0.0    -0.0        0.0        0.0        0.0        0.0
"Transformer.REG1A"  2    -3615.3    -1311.5        0.0        0.0     0.0     0.0
"Line.L115"          1     3615.3     1311.5       -0.0       -0.0    -0.0    -0.0        0.0        0.0      180.0       65.3
"Line.L115"          2    -3597.6    -1273.5        0.9        1.0     0.8     1.6
"Line.L1"            1        0.0        0.0        0.0        0.0     0.0     0.0        0.0        0.0        0.0        0.0
"Line.L1"            2        0.0        0.0        0.0        0.0     0.0     0.0
"Line.L2"            1        0.0        0.0        0.0        0.0     0.0     0.0        0.0        0.0        0.0        0.0
"Line.L2"            2        0.0        0.0        0.0        0.0     0.0     0.0
"Line.L3"            1     3434.6     1191.9       -1.0       -0.8    -0.5    -1.7        0.0        0.0       74.8       25.9
"Line.L3"            2    -3422.6    -1166.0        1.7        1.5     1.0     2.9
"Line.L4"            1        0.0        0.0        0.0        0.0     0.0     0.0        0.0        0.0        0.0        0.0
"Line.L4"            2        0.0        0.0        0.0        0.0     0.0     0.0
"Line.L5"            1        0.0        0.0        0.0        0.0     0.0     0.0        0.0        0.0        0.0        0.0
"Line.L5"            2        0.0        0.0        0.0        0.0     0.0     0.0
"Line.L6"            1        0.0        0.0        0.0        0.0     0.0     0.0        0.0        0.0        0.0        0.0
"Line.L6"            2        0.0        0.0        0.0        0.0     0.0     0.0
"Line.L7"            1     3402.5     1155.8       -1.6       -1.5    -1.0    -2.7        0.0        0.0       23.9        8.1
"Line.L7"            2    -3394.6    -1138.8        2.0        1.9     1.4     3.4
"Line.L8"            1        0.0        0.0        0.0        0.0     0.0     0.0        0.0        0.0        0.0        0.0
"Line.L8"            2        0.0        0.0        0.0        0.0     0.0     0.0
"Line.L9"            1        0.0        0.0        0.0        0.0     0.0     0.0        0.0        0.0        0.0        0.0
"Line.L9"            2        0.0        0.0        0.0        0.0     0.0     0.0
"Line.L10"           1     3273.3     1077.1       -1.5       -1.7    -1.4    -2.5        0.0        0.0        0.0        0.0
"Line.L10"           2    -3262.2    -1053.5        1.9        2.2     1.8     3.1
"Line.L11"           1        0.0        0.0        0.0        0.0     0.0     0.0        0.0        0.0        0.0        0.0
"Line.L11"           2        0.0        0.0        0.0        0.0     0.0     0.0
"Line.L12"           1        0.0        0.0        0.0        0.0     0.0     0.0        0.0        0.0        0.0        0.0
"Line.L12"           2        0.0        0.0        0.0        0.0     0.0     0.0
"Line.L13"           1     1127.6      670.5       -1.4       -0.6    -0.3    -1.8        0.0        0.0        0.0        0.0
"Line.L13"           2    -1122.8     -661.2        1.3        0.7     0.4     2.3
"Line.L14"           1        0.0        0.0        0.0        0.0     0.0     0.0        0.0        0.0        0.0        0.0
"Line.L14"           2        0.0        0.0        0.0        0.0     0.0     0.0
"Line.L15"           1        0.0        0.0        0.0        0.0     0.0     0.0        0.0        0.0        0.0        0.0
"Line.L15"           2        0.0        0.0        0.0        0.0     0.0     0.0
"Line.L16"           1        0.0        0.0        0.0        0.0     0.0     0.0        0.0        0.0        0.0        0.0
"Line.L16"           2        0.0        0.0        0.0        0.0     0.0     0.0
"Line.L17"           1        0.0        0.0        0.0        0.0     0.0     0.0        0.0        0.0        0.0        0.0
"Line.L17"           2        0.0        0.0        0.0        0.0     0.0     0.0
"Line.L18"           1        0.0        0.0        0.0        0.0     0.0     0.0        0.0        0.0        0.0        0.0
"Line.L18"           2        0.0        0.0        0.0        0.0     0.0     0.0
"Line.L19"           1      282.8      142.7        0.0       -0.7    -1.2    -0.5        0.0        0.0        0.0        0.0
"Line.L19"           2     -282.7     -142.5       -0.0        0.7     1.2     0.6
"Line.L20"           1        0.0        0.0        0.0        0.0     0.0     0.0        0.0        0.0        0.0        0.0
"Line.L20"           2        0.0        0.0        0.0        0.0     0.0     0.0
"Line.L21"           1        0.0        0.0        0.0        0.0     0.0     0.0        0.0        0.0        0.0        0.0
"Line.L21"           2        0.0        0.0        0.0        0.0     0.0     0.0
"Line.L22"           1      241.2      122.1        0.0       -1.0    -1.8    -0.8        0.0        0.0        0.0        0.0
"Line.L22"           2     -241.2     -122.0        0.0        1.1     1.8     0.9
"Line.L23"           1        0.0        0.0        0.0        0.0     0.0     0.0        0.0        0.0        0.0        0.0
"Line.L23"           2        0.0        0.0        0.0        0.0     0.0     0.0
"Line.L24"           1      200.8      102.1       -0.3       -0.9    -1.3    -1.3        0.0        0.0        0.0        0.0
"Line.L24"           2     -200.8     -102.0        0.3        0.9     1.3     1.4
"Line.L25"           1        0.0        0.0        0.0        0.0     0.0     0.0        0.0        0.0        0.0        0.0
"Line.L25"           2        0.0        0.0        0.0        0.0     0.0     0.0
"Line.L26"           1      120.0       61.2       -0.3       -0.5    -0.7    -1.1        0.0        0.0        0.0        0.0
"Line.L26"           2     -119.9      -61.2        0.3        0.6     0.7     1.1
"Line.L27"           1        0.0        0.0        0.0        0.0     0.0     0.0        0.0        0.0        0.0        0.0
"Line.L27"           2        0.0        0.0        0.0        0.0     0.0     0.0
"Line.L28"           1        0.0        0.0        0.0        0.0     0.0     0.0        0.0        0.0        0.0        0.0
"Line.L28"           2        0.0        0.0        0.0        0.0     0.0     0.0
"Line.L29"           1        0.0        0.0        0.0        0.0     0.0     0.0        0.0        0.0        0.0        0.0
"Line.L29"           2        0.0        0.0        0.0        0.0     0.0     0.0
"Line.L30"           1       80.0       40.4        0.0       -0.4    -0.6    -0.3        0.0        0.0        0.0        0.0
"Line.L30"           2      -80.0      -40.4        0.0        0.4     0.7     0.4
"Line.L31"           1       40.3       19.8        0.3       -0.2    -0.6     0.4        0.0        0.0        0.0        0.0
"Line.L31"           2      -40.3      -19.8       -0.3        0.2     0.6    -0.4
"Line.L32"           1        0.0       -0.0       -0.0        0.0     0.0    -0.0        0.0        0.0        0.0        0.0
"Line.L32"           2       -0.0        0.0        0.0       -0.0     0.0     0.0
"Line.L33"           1        0.0        0.0        0.0        0.0     0.0     0.0        0.0        0.0        0.0        0.0
"Line.L33"           2        0.0        0.0        0.0        0.0     0.0     0.0
"Line.L34"           1        0.0        0.0        0.0        0.0     0.0     0.0        0.0        0.0        0.0        0.0
"Line.L34"           2        0.0        0.0        0.0        0.0     0.0     0.0
"Line.L35"           1        0.0        0.0        0.0        0.0     0.0     0.0        0.0        0.0        0.0        0.0
"Line.L35"           2        0.0        0.0        0.0        0.0     0.0     0.0
"Line.L36"           1      638.8      414.8       -0.2        0.0     0.3    -0.1        0.0        0.0        0.0        0.0
"Line.L36"           2     -638.3     -413.8        0.2       -0.0    -0.3     0.1
"Line.L37"           1        0.0        0.0        0.0        0.0     0.0     0.0        0.0        0.0        0.0        0.0
"Line.L37"           2        0.0        0.0        0.0        0.0     0.0     0.0
"Line.L38"           1        0.0        0.0        0.0        0.0     0.0     0.0        0.0        0.0        0.0        0.0
"Line.L38"           2        0.0        0.0        0.0        0.0     0.0     0.0
"Line.L39"           1        0.0        0.0        0.0        0.0     0.0     0.0        0.0        0.0        0.0        0.0
"Line.L39"           2        0.0        0.0        0.0        0.0     0.0     0.0
"Line.L40"           1        0.0        0.0        0.0        0.0     0.0     0.0        0.0        0.0        0.0        0.0
"Line.L40"           2        0.0        0.0        0.0        0.0     0.0     0.0
"Line.L41"           1      618.2      403.9       -0.4        0.1     0.6    -0.3        0.0        0.0        0.0        0.0
"Line.L41"           2     -617.8     -403.0        0.4       -0.1    -0.6     0.3
"Line.L42"           1        0.0        0.0        0.0        0.0     0.0     0.0        0.0        0.0        0.0        0.0
"Line.L42"           2        0.0        0.0        0.0        0.0     0.0     0.0
"Line.L43"           1      556.5      372.3       -0.2       -0.2     0.0    -0.2        0.0        0.0        0.0        0.0
"Line.L43"           2     -556.2     -371.7        0.2        0.2    -0.0     0.2
"Line.L44"           1        0.0        0.0        0.0        0.0     0.0     0.0        0.0        0.0        0.0        0.0
"Line.L44"           2        0.0        0.0        0.0        0.0     0.0     0.0
"Line.L45"           1      516.0      350.9        0.1        0.0     0.1     0.4        0.0        0.0        0.0        0.0
"Line.L45"           2     -515.7     -350.3       -0.1       -0.0    -0.1    -0.4
"Line.L46"           1        0.0        0.0        0.0        0.0     0.0     0.0        0.0        0.0        0.0        0.0
"Line.L46"           2        0.0        0.0        0.0        0.0     0.0     0.0
"Line.L47"           1      210.6      150.5        0.0        0.0     0.0     0.0        0.0        0.0        0.0        0.0
"Line.L47"           2     -210.6     -150.4       -0.0       -0.0    -0.0    -0.0
"Line.L48"           1      199.9      124.7        0.1        0.0     0.1     0.4        0.0        0.0        0.0        0.0
"Line.L48"           2     -199.9     -124.6       -0.1       -0.0    -0.1    -0.4
"Line.L49"           1       60.4       30.2        0.2       -0.3    -0.5     0.1        0.0        0.0        0.0        0.0
"Line.L49"           2      -60.4      -30.2       -0.2        0.3     0.5    -0.1
"Line.L50"           1       20.2       10.4       -0.2       -0.1    -0.1    -0.3        0.0        0.0        0.0        0.0
"Line.L50"           2      -20.2      -10.4        0.2        0.1     0.1     0.3
"Line.L51"           1        0.0       -0.0       -0.0       -0.0    -0.0    -0.0        0.0        0.0        0.0        0.0
"Line.L51"           2        0.0        0.0       -0.0       -0.0    -0.0    -0.0
"Line.L52"           1     1987.3      300.4       -1.1       -1.1    -0.5    -1.7        0.0        0.0        0.0        0.0
"Line.L52"           2    -1984.7     -295.0        1.2        1.2     0.6     1.8
"Line.L53"           1     1944.3      274.1       -0.9       -1.0    -0.5    -1.2        0.0        0.0        0.0        0.0
"Line.L53"           2    -1942.8     -270.9        0.9        1.0     0.5     1.2
"Line.L54"           1       39.6       19.9       -0.2        0.1     0.3    -0.2        0.0        0.0        0.0        0.0
"Line.L54"           2      -39.6      -19.9        0.2       -0.1    -0.3     0.2
"Line.L55"           1     1903.2      250.9       -0.7       -1.1    -0.8    -1.0        0.0        0.0        0.0        0.0
"Line.L55"           2    -1898.8     -242.3        0.7        1.2     0.8     1.1
"Line.L56"           1       19.7        9.7        0.0        0.2     0.3     0.1        0.0        0.0        0.0        0.0
"Line.L56"           2      -19.7       -9.7       -0.0       -0.2    -0.3    -0.1
"Line.L57"           1        0.0        0.0        0.0        0.0     0.0     0.0        0.0        0.0        0.0        0.0
"Line.L57"           2        0.0        0.0        0.0        0.0     0.0     0.0
"Line.L58"           1     1858.9      222.7       -0.6       -1.6    -1.4    -1.3        0.0        0.0        0.0        0.0
"Line.L58"           2    -1850.0     -204.9        0.5        1.8     1.5     1.5
"Line.L59"           1        0.0        0.0        0.0        0.0     0.0     0.0        0.0        0.0        0.0        0.0
"Line.L59"           2        0.0        0.0        0.0        0.0     0.0     0.0
"Line.L60"           1       -0.0       -0.0        0.0        0.0     0.0    -0.0        0.0        0.0        0.0        0.0
"Line.L60"           2       -0.0       -0.0       -0.0       -0.0    -0.0    -0.0
"Line.L61"           1      371.0      209.3        0.9       -0.4    -0.5     1.0        0.0        0.0        0.0        0.0
"Line.L61"           2     -370.5     -209.1       -0.9        0.4     0.6    -1.0
"Line.L62"           1      330.5      189.4        0.5       -0.2     0.1     0.6        0.0        0.0        0.0        0.0
"Line.L62"           2     -330.2     -189.3       -0.5        0.2    -0.1    -0.6
"Line.L63"           1      289.8      168.3        0.9        0.1     0.1     1.4        0.0        0.0        0.0        0.0
"Line.L63"           2     -289.4     -168.2       -0.8       -0.0     0.0    -1.3
"Line.L64"           1      214.2      134.1        0.9       -0.8    -1.2     0.7        0.0        0.0        0.0        0.0
"Line.L64"           2     -213.9     -134.0       -0.8        0.8     1.2    -0.6
"Line.L65"           1       75.6       34.8        0.7       -0.4    -1.2     0.6        0.0        0.0        0.0        0.0
"Line.L65"           2      -75.6      -34.8       -0.7        0.4     1.3    -0.6
"Line.L66"           1        0.0        0.0        0.0        0.0     0.0     0.0        0.0        0.0        0.0        0.0
"Line.L66"           2        0.0        0.0        0.0        0.0     0.0     0.0
"Line.L67"           1      887.2     -309.6       -0.1        0.2    -0.7     0.5        0.0        0.0        0.0        0.0
"Line.L67"           2     -886.5      311.1        0.1       -0.2     0.7    -0.5
"Line.L68"           1      446.9      226.2        0.3       -0.3     0.2    -0.7        0.0        0.0        0.0        0.0
"Line.L68"           2     -446.7     -225.8       -0.3        0.3    -0.2     0.7
"Line.L69"           1        0.0        0.0        0.0        0.0     0.0     0.0        0.0        0.0        0.0        0.0
"Line.L69"           2        0.0        0.0        0.0        0.0     0.0     0.0
"Line.L70"           1        0.0        0.0        0.0        0.0     0.0     0.0        0.0        0.0        0.0        0.0
"Line.L70"           2        0.0        0.0        0.0        0.0     0.0     0.0
"Line.L71"           1        0.0        0.0        0.0        0.0     0.0     0.0        0.0        0.0        0.0        0.0
"Line.L71"           2        0.0        0.0        0.0        0.0     0.0     0.0
"Line.L72"           1        0.0        0.0        0.0        0.0     0.0     0.0        0.0        0.0        0.0        0.0
"Line.L72"           2        0.0        0.0        0.0        0.0     0.0     0.0
"Line.L73"           1      762.5     -372.2       -0.6       -0.5     0.9     0.6        0.0        0.0        0.0        0.0
"Line.L73"           2     -762.1      373.1        0.6        0.5    -0.9    -0.6
"Line.L74"           1        0.0        0.0        0.0        0.0     0.0     0.0        0.0        0.0        0.0        0.0
"Line.L74"           2        0.0        0.0        0.0        0.0     0.0     0.0
"Line.L75"           1        0.0        0.0        0.0        0.0     0.0     0.0        0.0        0.0        0.0        0.0
"Line.L75"           2        0.0        0.0        0.0        0.0     0.0     0.0
"Line.L76"           1      245.6     -529.7        0.0       -0.0     0.0    -0.1        0.0        0.0        0.0        0.0
"Line.L76"           2     -245.1      530.6       -0.0        0.0    -0.0     0.1
"Line.L77"           1      261.9      -30.7       -0.6       -0.2     0.9     0.7        0.0        0.0        0.0        0.0
"Line.L77"           2     -261.7       31.0        0.6        0.3    -0.8    -0.6
"Line.L78"           1      205.1     -550.1        0.3       -0.0    -0.2    -0.6        0.0        0.0        0.0        0.0
"Line.L78"           2     -205.0      550.3       -0.3        0.0     0.2     0.6
"Line.L79"           1       43.1       22.5        0.1       -0.3     0.3    -0.4        0.0        0.0        0.0        0.0
"Line.L79"           2      -43.1      -22.5       -0.1        0.3    -0.3     0.5
"Line.L80"           1      161.9     -572.8        0.2        0.2    -0.5    -0.1        0.0        0.0        0.0        0.0
"Line.L80"           2     -161.4      573.9       -0.1       -0.2     0.5     0.1
"Line.L81"           1      121.3     -593.4        0.4        0.2    -0.7    -0.6        0.0        0.0        0.0        0.0
"Line.L81"           2     -121.1      593.8       -0.4       -0.2     0.7     0.6
"Line.L82"           1       60.4     -623.7        0.2       -0.1     0.1    -0.5        0.0        0.0        0.0        0.0
"Line.L82"           2      -60.1      624.3       -0.2        0.1    -0.1     0.5
"Line.L83"           1        0.0        0.0        0.0        0.0     0.0     0.0        0.0        0.0        0.0        0.0
"Line.L83"           2        0.0        0.0        0.0        0.0     0.0     0.0
"Line.L84"           1       20.5     -645.0        0.1        0.1    -0.3    -0.1        0.0        0.0        0.0        0.0
"Line.L84"           2      -20.2      645.6       -0.1       -0.1     0.3     0.1
"Line.L85"           1        0.0        0.0        0.0        0.0     0.0     0.0        0.0        0.0        0.0        0.0
"Line.L85"           2        0.0        0.0        0.0        0.0     0.0     0.0
"Line.L86"           1      241.7      -40.8       -0.5       -0.3     0.7     0.4        0.0        0.0        0.0        0.0
"Line.L86"           2     -241.6       40.9        0.5        0.3    -0.7    -0.3
"Line.L87"           1        0.0        0.0        0.0        0.0     0.0     0.0        0.0        0.0        0.0        0.0
"Line.L87"           2        0.0        0.0        0.0        0.0     0.0     0.0
"Line.L88"           1      161.0      -27.2        0.1        0.0     0.7     0.4        0.0        0.0        0.0        0.0
"Line.L88"           2     -161.0       27.3       -0.1       -0.0    -0.7    -0.3
"Line.L89"           1        0.0        0.0        0.0        0.0     0.0     0.0        0.0        0.0        0.0        0.0
"Line.L89"           2        0.0        0.0        0.0        0.0     0.0     0.0
"Line.L90"           1      119.6        6.2        0.2       -0.3     0.3     0.4        0.0        0.0        0.0        0.0
"Line.L90"           2     -119.6       -6.2       -0.2        0.3    -0.3    -0.4
"Line.L91"           1        0.0        0.0        0.0        0.0     0.0     0.0        0.0        0.0        0.0        0.0
"Line.L91"           2        0.0        0.0        0.0        0.0     0.0     0.0
"Line.L92"           1       79.8       40.4       -0.1       -0.3     0.4    -0.0        0.0        0.0        0.0        0.0
"Line.L92"           2      -79.8      -40.4        0.1        0.3    -0.4     0.0
"Line.L93"           1        0.0        0.0        0.0        0.0     0.0     0.0        0.0        0.0        0.0        0.0
"Line.L93"           2        0.0        0.0        0.0        0.0     0.0     0.0
"Line.L94"           1       40.1       19.7       -0.3       -0.0     0.2     0.3        0.0        0.0        0.0        0.0
"Line.L94"           2      -40.1      -19.7        0.3        0.0    -0.2    -0.3
"Line.L95"           1        0.0        0.0        0.0        0.0     0.0     0.0        0.0        0.0        0.0        0.0
"Line.L95"           2        0.0        0.0        0.0        0.0     0.0     0.0
"Line.L96"           1      122.8       61.4        0.0        0.0    -0.0     0.0        0.0        0.0        0.0        0.0
"Line.L96"           2     -122.8      -61.4       -0.0       -0.0     0.0    -0.0
"Line.L97"           1       83.2       40.7       -0.1        0.3    -0.3     0.5        0.0        0.0        0.0        0.0
"Line.L97"           2      -83.1      -40.7        0.1       -0.3     0.3    -0.4
"Line.L98"           1       43.1       21.2        0.2        0.2    -0.6    -0.0        0.0        0.0        0.0        0.0
"Line.L98"           2      -43.1      -21.2       -0.2       -0.2     0.6     0.1
"Line.L99"           1       -0.0       -0.0        0.0       -0.0    -0.0    -0.0        0.0        0.0        0.0        0.0
"Line.L99"           2        0.0        0.0       -0.0        0.0    -0.0    -0.0
...
"Line.SW1"           1     3615.3     1311.5       -0.0       -0.0    -0.0    -0.0        0.0        0.0      180.0       65.3
"Line.SW1"           2    -3615.3    -1311.5        0.0        0.0     0.0     0.0
"Line.SW2"           1     2033.1      332.6       -1.3       -1.1    -0.5    -2.0        0.0        0.0        0.0        0.0
"Line.SW2"           2    -2033.1     -332.6        1.3        1.1     0.5     2.0
"Line.SW3"           1      759.5      476.8       -0.8        0.3     0.9    -0.5        0.0        0.0        0.0        0.0
"Line.SW3"           2     -759.5     -476.8        0.8       -0.3    -0.9     0.5
"Line.SW4"           1     1458.8      -14.9       -1.3       -1.3    -0.9    -2.2        0.0        0.0        0.0        0.0
"Line.SW4"           2    -1458.8       14.9        1.3        1.3     0.9     2.2
"Line.SW5"           1      324.0      164.4        0.3       -0.3     0.2    -0.7        0.0        0.0        0.0        0.0
"Line.SW5"           2     -324.0     -164.4       -0.3        0.3    -0.2     0.7
"Line.SW6"           1        0.0        0.0       -0.0        0.0    -0.0    -0.0        0.0        0.0        0.0        0.0
"Line.SW6"           2       -0.0       -0.0        0.0       -0.0     0.0     0.0
"Line.SW7"           1        0.0        0.0        0.0        0.0     0.0     0.0        0.0        0.0        0.0        0.0
"Line.SW7"           2        0.0        0.0        0.0        0.0     0.0     0.0
"Line.SW8"           1        0.0        0.0        0.0        0.0     0.0     0.0        0.0        0.0        0.0        0.0
"Line.SW8"           2        0.0        0.0        0.0        0.0     0.0     0.0
"Transformer.XFM1"   1       -0.0        0.0       -0.0        0.0    -0.0     0.0        0.0        0.0        0.0        0.0
"Transformer.XFM1"   2        0.0       -0.0        0.0        0.0     0.0     0.0
"Capacitor.C83"      1        0.0     -655.6       -0.0       -0.0     0.0    -0.1        0.0        0.0        0.0        0.0
"Capacitor.C83"      2        0.0        0.0        0.0        0.0     0.0     0.0
"Capacitor.C88A"     1        0.0        0.0        0.0        0.0     0.0     0.0        0.0        0.0        0.0        0.0
"Capacitor.C88A"     2        0.0        0.0        0.0        0.0     0.0     0.0
"Capacitor.C90B"     1        0.0        0.0        0.0        0.0     0.0     0.0        0.0        0.0        0.0        0.0
"Capacitor.C90B"     2        0.0        0.0        0.0        0.0     0.0     0.0
"Capacitor.C92C"     1        0.0        0.0        0.0        0.0     0.0     0.0        0.0        0.0        0.0        0.0
"Capacitor.C92C"     2        0.0        0.0        0.0        0.0     0.0     0.0
"Transformer.REG2A"  1        0.0        0.0        0.0        0.0     0.0     0.0        0.0        0.0        0.0        0.0
"Transformer.REG2A"  2        0.0        0.0        0.0        0.0     0.0     0.0
"Transformer.REG3A"  1        0.0        0.0        0.0        0.0     0.0     0.0        0.0        0.0        0.0        0.0
"Transformer.REG3A"  2        0.0        0.0        0.0        0.0     0.0     0.0
"Transformer.REG4A"  1        0.0        0.0        0.0        0.0     0.0     0.0        0.0        0.0        0.0        0.0
"Transformer.REG4A"  2        0.0        0.0        0.0        0.0     0.0     0.0
"Transformer.REG3C"  1        0.0        0.0        0.0        0.0     0.0     0.0        0.0        0.0        0.0        0.0
"Transformer.REG3C"  2        0.0        0.0        0.0        0.0     0.0     0.0
"Transformer.REG4B"  1        0.0        0.0        0.0        0.0     0.0     0.0        0.0        0.0        0.0        0.0
"Transformer.REG4B"  2        0.0        0.0        0.0        0.0     0.0     0.0
"Transformer.REG4C"  1        0.0        0.0        0.0        0.0     0.0     0.0        0.0        0.0        0.0        0.0
"Transformer.REG4C"  2        0.0        0.0        0.0        0.0     0.0     0.0
"Load.S1A"           1        0.0        0.0        0.0        0.0     0.0     0.0
"Load.S2B"           1        0.0        0.0        0.0        0.0     0.0     0.0
"Load.S4C"           1        0.0        0.0        0.0        0.0     0.0     0.0
"Load.S5C"           1        0.0        0.0        0.0        0.0     0.0     0.0
"Load.S6C"           1        0.0        0.0        0.0        0.0     0.0     0.0
"Load.S7A"           1        0.0        0.0        0.0        0.0     0.0     0.0
"Load.S9A"           1        0.0        0.0        0.0        0.0     0.0     0.0
"Load.S10A"          1        0.0        0.0        0.0        0.0     0.0     0.0
"Load.S11A"          1        0.0        0.0        0.0        0.0     0.0     0.0
"Load.S12B"          1        0.0        0.0        0.0        0.0     0.0     0.0
"Load.S16C"          1        0.0        0.0        0.0        0.0     0.0     0.0
"Load.S17C"          1        0.0        0.0        0.0        0.0     0.0     0.0
"Load.S19A"          1        0.0        0.0        0.0        0.0     0.0     0.0
"Load.S20A"          1        0.0        0.0        0.0        0.0     0.0     0.0
"Load.S22B"          1        0.0        0.0        0.0        0.0     0.0     0.0
"Load.S24C"          1        0.0        0.0        0.0        0.0     0.0     0.0
"Load.S28A"          1        0.0        0.0        0.0        0.0     0.0     0.0
"Load.S29A"          1        0.0        0.0        0.0        0.0     0.0     0.0
"Load.S30C"          1        0.0        0.0        0.0        0.0     0.0     0.0
"Load.S31C"          1        0.0        0.0        0.0        0.0     0.0     0.0
"Load.S32C"          1        0.0        0.0        0.0        0.0     0.0     0.0
"Load.S33A"          1        0.0        0.0        0.0        0.0     0.0     0.0
"Load.S34C"          1        0.0        0.0        0.0        0.0     0.0     0.0
"Load.S35A"          1        0.0        0.0        0.0        0.0     0.0     0.0
"Load.S37A"          1        0.0        0.0        0.0        0.0     0.0     0.0
"Load.S38B"          1        0.0        0.0        0.0        0.0     0.0     0.0
"Load.S39B"          1        0.0        0.0        0.0        0.0     0.0     0.0
"Load.S41C"          1        0.0        0.0        0.0        0.0     0.0     0.0
"Load.S42A"          1        0.0        0.0        0.0        0.0     0.0     0.0
"Load.S43B"          1        0.0        0.0        0.0        0.0     0.0     0.0
"Load.S45A"          1        0.0        0.0        0.0        0.0     0.0     0.0
"Load.S46A"          1        0.0        0.0        0.0        0.0     0.0     0.0
"Load.S47"           1      105.2       75.1        0.0       -0.0     0.0     0.0
"Load.S48"           1      210.6      150.4        0.0        0.0     0.0     0.0
"Load.S49A"          1        0.0        0.0        0.0        0.0     0.0     0.0
"Load.S49B"          1        0.0        0.0        0.0        0.0     0.0     0.0
"Load.S49C"          1        0.0        0.0        0.0        0.0     0.0     0.0
"Load.S50C"          1        0.0        0.0        0.0        0.0     0.0     0.0
"Load.S51A"          1        0.0        0.0        0.0        0.0     0.0     0.0
"Load.S52A"          1        0.0        0.0        0.0        0.0     0.0     0.0
"Load.S53A"          1        0.0        0.0        0.0        0.0     0.0     0.0
"Load.S55A"          1        0.0        0.0        0.0        0.0     0.0     0.0
"Load.S56B"          1        0.0        0.0        0.0        0.0     0.0     0.0
"Load.S58B"          1        0.0        0.0        0.0        0.0     0.0     0.0
"Load.S59B"          1        0.0        0.0        0.0        0.0     0.0     0.0
"Load.S60A"          1        0.0        0.0        0.0        0.0     0.0     0.0
"Load.S62C"          1        0.0        0.0        0.0        0.0     0.0     0.0
"Load.S63A"          1        0.0        0.0        0.0        0.0     0.0     0.0
"Load.S64B"          1        0.0        0.0        0.0        0.0     0.0     0.0
"Load.S65A"          1        0.0        0.0        0.0        0.0     0.0     0.0
"Load.S65B"          1        0.0        0.0        0.0        0.0     0.0     0.0
"Load.S65C"          1        0.0        0.0        0.0        0.0     0.0     0.0
...